<?xml version="1.0" encoding="ISO-8859-1"?>
<febio_spec version="3.0">
	<Module type="solid"/>
	<Globals>
		<Constants>
			<T>0</T>
			<R>0</R>
			<Fc>0</Fc>
		</Constants>
	</Globals>
	<Material>
		<material id="1" name="Material1" type="Veronda-Westmann">
			<density>1</density>
			<c1>2.65</c1>
			<c2>8.35</c2>
			<k>5000</k>
		</material>
	</Material>
	<Mesh>
		<Nodes name="Object01">
			<node id="1">4.46,0,0</node>
			<node id="2">4.49412322,0,0</node>
			<node id="3">4.54530806,0,0</node>
			<node id="4">4.62208531,0,0</node>
			<node id="5">4.73725118,0,0</node>
			<node id="6">4.91,0,0</node>
			<node id="7">5.08274882,0,0</node>
			<node id="8">5.19791469,0,0</node>
			<node id="9">5.27469194,0,0</node>
			<node id="10">5.32587678,0,0</node>
			<node id="11">5.36,0,0</node>
			<node id="12">4.44625131,0.349927561,0</node>
			<node id="13">4.48026934,0.352604838,0</node>
			<node id="14">4.53129639,0.356620754,0</node>
			<node id="15">4.60783696,0.362644627,0</node>
			<node id="16">4.72264782,0.371680438,0</node>
			<node id="17">4.89486411,0.385234153,0</node>
			<node id="18">5.0670804,0.398787869,0</node>
			<node id="19">5.18189126,0.407823679,0</node>
			<node id="20">5.25843183,0.413847553,0</node>
<!-- ... 1322 like lines cut -->
		</Nodes>
		<Elements type="hex8" name="Part1">
			<elem id="1">1,2,13,12,672,673,684,683</elem>
			<elem id="2">2,3,14,13,673,674,685,684</elem>
			<elem id="3">3,4,15,14,674,675,686,685</elem>
			<elem id="4">4,5,16,15,675,676,687,686</elem>
			<elem id="5">5,6,17,16,676,677,688,687</elem>
			<elem id="6">6,7,18,17,677,678,689,688</elem>
			<elem id="7">7,8,19,18,678,679,690,689</elem>
			<elem id="8">8,9,20,19,679,680,691,690</elem>
			<elem id="9">9,10,21,20,680,681,692,691</elem>
			<elem id="10">10,11,22,21,681,682,693,692</elem>
			<elem id="11">12,13,24,23,683,684,695,694</elem>
			<elem id="12">13,14,25,24,684,685,696,695</elem>
			<elem id="13">14,15,26,25,685,686,697,696</elem>
			<elem id="14">15,16,27,26,686,687,698,697</elem>
			<elem id="15">16,17,28,27,687,688,699,698</elem>
			<elem id="16">17,18,29,28,688,689,700,699</elem>
			<elem id="17">18,19,30,29,689,690,701,700</elem>
			<elem id="18">19,20,31,30,690,691,702,701</elem>
			<elem id="19">20,21,32,31,691,692,703,702</elem>
			<elem id="20">21,22,33,32,692,693,704,703</elem>
<!-- ... 580 like lines cut -->
		</Elements>
		<NodeSet name="Fix_X-Curve">
			<n id="11"/>
			<n id="682"/>
		</NodeSet>
		<Surface name="Fix_Y-Surface">
			<quad4 id="1">1,2,673,672</quad4>
			<quad4 id="2">2,3,674,673</quad4>
			<quad4 id="3">3,4,675,674</quad4>
			<quad4 id="4">4,5,676,675</quad4>
			<quad4 id="5">5,6,677,676</quad4>
			<quad4 id="6">6,7,678,677</quad4>
			<quad4 id="7">7,8,679,678</quad4>
			<quad4 id="8">8,9,680,679</quad4>
			<quad4 id="9">9,10,681,680</quad4>
			<quad4 id="10">10,11,682,681</quad4>
		</Surface>
		<Surface name="X-Displacement">
			<quad4 id="1">661,662,1333,1332</quad4>
			<quad4 id="2">662,663,1334,1333</quad4>
			<quad4 id="3">663,664,1335,1334</quad4>
			<quad4 id="4">664,665,1336,1335</quad4>
			<quad4 id="5">665,666,1337,1336</quad4>
			<quad4 id="6">666,667,1338,1337</quad4>
			<quad4 id="7">667,668,1339,1338</quad4>
			<quad4 id="8">668,669,1340,1339</quad4>
			<quad4 id="9">669,670,1341,1340</quad4>
			<quad4 id="10">670,671,1342,1341</quad4>
		</Surface>
		<Surface name="Y-Displacement">
			<quad4 id="1">661,662,1333,1332</quad4>
			<quad4 id="2">662,663,1334,1333</quad4>
			<quad4 id="3">663,664,1335,1334</quad4>
			<quad4 id="4">664,665,1336,1335</quad4>
			<quad4 id="5">665,666,1337,1336</quad4>
			<quad4 id="6">666,667,1338,1337</quad4>
			<quad4 id="7">667,668,1339,1338</quad4>
			<quad4 id="8">668,669,1340,1339</quad4>
			<quad4 id="9">669,670,1341,1340</quad4>
			<quad4 id="10">670,671,1342,1341</quad4>
		</Surface>
		<Surface name="PrescribedDisplacement3">
			<quad4 id="1">661,662,1333,1332</quad4>
			<quad4 id="2">662,663,1334,1333</quad4>
			<quad4 id="3">663,664,1335,1334</quad4>
			<quad4 id="4">664,665,1336,1335</quad4>
			<quad4 id="5">665,666,1337,1336</quad4>
			<quad4 id="6">666,667,1338,1337</quad4>
			<quad4 id="7">667,668,1339,1338</quad4>
			<quad4 id="8">668,669,1340,1339</quad4>
			<quad4 id="9">669,670,1341,1340</quad4>
			<quad4 id="10">670,671,1342,1341</quad4>
		</Surface>
		<Surface name="Luminal Pressure">
			<quad4 id="1">12,1,672,683</quad4>
			<quad4 id="2">23,12,683,694</quad4>
			<quad4 id="3">34,23,694,705</quad4>
			<quad4 id="4">45,34,705,716</quad4>
			<quad4 id="5">56,45,716,727</quad4>
			<quad4 id="6">67,56,727,738</quad4>
			<quad4 id="7">78,67,738,749</quad4>
			<quad4 id="8">89,78,749,760</quad4>
			<quad4 id="9">100,89,760,771</quad4>
			<quad4 id="10">111,100,771,782</quad4>
			<quad4 id="11">122,111,782,793</quad4>
			<quad4 id="12">133,122,793,804</quad4>
			<quad4 id="13">144,133,804,815</quad4>
			<quad4 id="14">155,144,815,826</quad4>
			<quad4 id="15">166,155,826,837</quad4>
			<quad4 id="16">177,166,837,848</quad4>
			<quad4 id="17">188,177,848,859</quad4>
			<quad4 id="18">199,188,859,870</quad4>
			<quad4 id="19">210,199,870,881</quad4>
			<quad4 id="20">221,210,881,892</quad4>
<!-- ... 40 like lines cut -->
		</Surface>
		<ElementSet name="Fix-Z">
			<e id="1"/>
			<e id="2"/>
			<e id="3"/>
			<e id="4"/>
			<e id="5"/>
			<e id="6"/>
			<e id="7"/>
			<e id="8"/>
			<e id="9"/>
			<e id="10"/>
			<e id="11"/>
			<e id="12"/>
			<e id="13"/>
			<e id="14"/>
			<e id="15"/>
			<e id="16"/>
			<e id="17"/>
			<e id="18"/>
			<e id="19"/>
			<e id="20"/>
<!-- ... 580 like lines cut -->
		</ElementSet>
	</Mesh>
	<MeshDomains>
		<SolidDomain name="Part1" mat="Material1"/>
	</MeshDomains>
	<Boundary>
		<bc name="Fix-Z" type="fix" node_set="@elem_set:Fix-Z">
			<dofs>z</dofs>
		</bc>
		<bc name="Fix_X-Curve" type="fix" node_set="Fix_X-Curve">
			<dofs>x</dofs>
		</bc>
		<bc name="Fix_Y-Surface" type="fix" node_set="@surface:Fix_Y-Surface">
			<dofs>y</dofs>
		</bc>
	</Boundary>
	<Loads>
		<surface_load name="Luminal Pressure" type="pressure" surface="Luminal Pressure">
			<pressure lc="4">16</pressure>
			<linear>0</linear>
			<symmetric_stiffness>1</symmetric_stiffness>
			<shell_bottom>0</shell_bottom>
		</surface_load>
	</Loads>
	<Step>
		<step id="1" name="Close_Ring">
			<Control>
				<analysis>STATIC</analysis>
				<time_steps>10</time_steps>
				<step_size>0.1</step_size>
				<solver>
					<max_refs>15</max_refs>
					<max_ups>10</max_ups>
					<diverge_reform>1</diverge_reform>
					<reform_each_time_step>1</reform_each_time_step>
					<dtol>0.001</dtol>
					<etol>0.01</etol>
					<rtol>0</rtol>
					<lstol>0.9</lstol>
					<min_residual>1e-20</min_residual>
					<qnmethod>BFGS</qnmethod>
					<rhoi>0</rhoi>
				</solver>
				<time_stepper>
					<dtmin>0.01</dtmin>
					<dtmax>0.1</dtmax>
					<max_retries>5</max_retries>
					<opt_iter>10</opt_iter>
				</time_stepper>
			</Control>
			<Boundary>
				<bc name="X-Displacement" type="prescribe" node_set="@surface:X-Displacement">
					<dof>x</dof>
					<scale lc="1" type="math">-Y*sin(t*pi/2)</scale>
					<relative>0</relative>
				</bc>
				<bc name="Y-Displacement" type="prescribe" node_set="@surface:Y-Displacement">
					<dof>y</dof>
					<scale lc="2" type="math">-Y*sin(t*pi/2)</scale>
					<relative>0</relative>
				</bc>
			</Boundary>
		</step>
		<step id="2" name="Inflation">
			<Control>
				<analysis>STATIC</analysis>
				<time_steps>10</time_steps>
				<step_size>0.1</step_size>
				<solver>
					<max_refs>15</max_refs>
					<max_ups>10</max_ups>
					<diverge_reform>1</diverge_reform>
					<reform_each_time_step>1</reform_each_time_step>
					<dtol>0.001</dtol>
					<etol>0.01</etol>
					<rtol>0</rtol>
					<lstol>0.9</lstol>
					<min_residual>1e-20</min_residual>
					<qnmethod>BFGS</qnmethod>
					<rhoi>0</rhoi>
				</solver>
				<time_stepper>
					<dtmin>0.01</dtmin>
					<dtmax>0.1</dtmax>
					<max_retries>5</max_retries>
					<opt_iter>10</opt_iter>
				</time_stepper>
			</Control>
			<Boundary>
				<bc name="PrescribedDisplacement3" type="prescribe" node_set="@surface:PrescribedDisplacement3">
					<dof>y</dof>
					<scale lc="3">0</scale>
					<relative>1</relative>
				</bc>
			</Boundary>
		</step>
	</Step>
	<LoadData>
		<load_controller id="1" type="loadcurve">
			<interpolate>SMOOTH</interpolate>
			<points>
				<point>0,1</point>
				<point>1,1</point>
			</points>
		</load_controller>
		<load_controller id="2" type="loadcurve">
			<interpolate>SMOOTH</interpolate>
			<points>
				<point>0,1</point>
				<point>1,1</point>
			</points>
		</load_controller>
		<load_controller id="3" type="loadcurve">
			<interpolate>SMOOTH</interpolate>
			<points>
				<point>0,0</point>
				<point>1,1</point>
			</points>
		</load_controller>
		<load_controller id="4" type="loadcurve">
			<interpolate>SMOOTH</interpolate>
			<points>
				<point>1,0</point>
				<point>2,1</point>
			</points>
		</load_controller>
	</LoadData>
	<Output>
		<plotfile type="febio">
			<var type="displacement"/>
			<var type="stress"/>
		</plotfile>
	</Output>
</febio_spec>
